/*--------------------------------*- C++ -*----------------------------------*\
| =========                 |                                                 |
| \\      /  F ield         | OpenFOAM: The Open Source CFD Toolbox           |
|  \\    /   O peration     | Version:  2.1.1                                 |
|   \\  /    A nd           | Web:      www.OpenFOAM.org                      |
|    \\/     M anipulation  |                                                 |
\*---------------------------------------------------------------------------*/
FoamFile
{
    version     2.0;
    format      ascii;
    class       dictionary;
    object      fvSchemes;
}
// * * * * * * * * * * * * * * * * * * * * * * * * * * * * * * * * * * * * * //

ddtSchemes
{
    default         backward;
}

gradSchemes
{
    default         Gauss linear;
    grad(p)         Gauss linear;
    grad(U)         cellMDLimited Gauss linear 1;//Gauss linear
   // grad(k)         cellMDLimited Gauss linear 1;
   // grad(omega)     cellMDLimited Gauss linear 1;
}

divSchemes
{
    default         none;
    div(phi,U)      Gauss linearUpwind grad(U);
    div(phi,k)      Gauss linearUpwind grad(k);//Gauss upwind; 
    div(phi,omega)  Gauss linearUpwind grad(omega);//Gauss upwind; 
    div((nuEff*dev(T(grad(U))))) Gauss linear; //
}

laplacianSchemes
{
       default                      Gauss linear limited 0.5;
    // default                      Gauss linear corrected; 
}

interpolationSchemes
{
    default         linear; 
    interpolate(U)  linear;
 }

snGradSchemes
{
      default         limited 0.5;
    //default         corrected;
}

fluxRequired
{
    default         no;
    p;
}

// ************************************************************************* //
