/*--------------------------------*- C++ -*----------------------------------*\
| =========                 |                                                 |
| \\      /  F ield         | OpenFOAM: The Open Source CFD Toolbox           |
|  \\    /   O peration     | Version:  2.1.1                                 |
|   \\  /    A nd           | Web:      www.OpenFOAM.org                      |
|    \\/     M anipulation  |                                                 |
\*---------------------------------------------------------------------------*/
FoamFile
{
    version     2.0;
    format      ascii;
    class       dictionary;
    object      fvSolution;
}
// * * * * * * * * * * * * * * * * * * * * * * * * * * * * * * * * * * * * * //

solvers
{
    p
   {
        solver           PCG;
        preconditioner   DIC;
        tolerance        1e-7;
        relTol           0.01;
/*      smoother         GaussSeidel;
        nPreSweeps       0;
        nPostSweeps      2;
        cacheAgglomeration on;
        agglomerator     faceAreaPair;
        nCellsInCoarsestLevel 100;
        mergeLevels      1;
*/
    }
    
    pFinal
    {
        solver           PCG;
        preconditioner   DIC;
        tolerance        1e-7;
        relTol           0.0;
        maxIter          30;
/*      smoother         GaussSeidel;
        nPreSweeps       0;
        nPostSweeps      2;
        cacheAgglomeration on;
        agglomerator     faceAreaPair;
        nCellsInCoarsestLevel 400;
        mergeLevels      1;
*/
    }
    U
    {
        solver           PBiCG;
	preconditioner	 DILU;
        tolerance        1e-7;
        relTol           0.05;
    }

    k
    {
        solver           PBiCG;
	preconditioner	 DILU;
        tolerance        1e-7;
        relTol           0.05;
    }

    omega
    {
        solver           PBiCG;
        preconditioner	 DILU;
        tolerance        1e-7;
        relTol           0.05;
    }
       

    "(U|k|omega)Final"
     {
        solver           PBiCG;
        preconditioner	 DILU;
        tolerance        1e-8;
        relTol           0;
     }
}

/*SIMPLE
{
    nNonOrthogonalCorrectors  1; //0, checkMesh,non-orthogonality angle > 70, set less than 3
    pRefPoint                (21 0 0); //why this point?
    pRefValue                 0;
}
residualControl
    {
        p               1e-5;
        U               1e-5;
        "(k|epsilon|omega)" 1e-5;
    }
potentialFlow
{
nNonOrthogonalCorrectors 20;
}*/

PIMPLE
{
nOuterCorrectors 3;//2
nCorrectors      2;
nNonOrthogonalCorrectors 0;
pRefCell         0;
pRefValue        0;
}

relaxationFactors  //different format with piso algorithm
{
    fields
    {
    }
    equations
    {
        "U.*"               0.8;
        "k.*"               0.5;
        "omega.*"           0.5;
    }
}
// ************************************************************************* //
